Version 4
SHEET 1 880 680
WIRE 112 -128 -112 -128
WIRE 112 -16 112 -128
WIRE 176 -16 176 -128
WIRE -112 64 -112 -48
WIRE 336 112 256 112
WIRE 336 128 336 112
WIRE 0 176 -80 176
WIRE 112 176 112 48
WIRE 112 176 80 176
WIRE 176 176 176 48
WIRE 176 176 112 176
WIRE 256 176 256 112
WIRE 256 176 176 176
WIRE 336 304 336 208
FLAG 336 304 0
FLAG -80 176 fpga_pin
IOPIN -80 176 Out
FLAG 176 -128 0
FLAG -112 64 0
SYMBOL voltage 336 112 R0
WINDOW 123 0 0 Left 2
WINDOW 39 0 0 Left 2
SYMATTR InstName gpio_in
SYMATTR Value 3.3v
SYMBOL res 96 160 R90
WINDOW 0 0 56 VBottom 2
WINDOW 3 32 56 VTop 2
SYMATTR InstName R1
SYMATTR Value 33
SYMBOL voltage -112 -144 R0
WINDOW 123 0 0 Left 2
WINDOW 39 0 0 Left 2
SYMATTR InstName vcc3p3
SYMATTR Value PULSE(0v 5v 0 0 0 1ms 2ms)
SYMBOL schottky 192 48 R180
WINDOW 0 24 64 Left 2
WINDOW 3 24 0 Left 2
SYMATTR InstName D1
SYMBOL schottky 96 -16 R0
SYMATTR InstName D2
TEXT -248 328 Left 2 !.tran 10ms
