Version 4
SHEET 1 880 716
WIRE -1264 -1264 -2368 -1264
WIRE -944 -1248 -2336 -1248
WIRE -1264 -1232 -2304 -1232
WIRE -944 -1216 -2272 -1216
WIRE -1264 -1200 -2240 -1200
WIRE -944 -1184 -2208 -1184
WIRE -1264 -1168 -2176 -1168
WIRE -944 -1152 -2144 -1152
WIRE -1264 -1136 -2112 -1136
WIRE -944 -1120 -2080 -1120
WIRE -1328 -1104 -2048 -1104
WIRE -1344 -1088 -2016 -1088
WIRE -1328 -1072 -1328 -1104
WIRE -1264 -1072 -1328 -1072
WIRE -2016 -1056 -2016 -1088
WIRE -2016 -1056 -2432 -1056
WIRE -1344 -1056 -1344 -1088
WIRE -944 -1056 -1344 -1056
WIRE -1264 -1040 -1328 -1040
WIRE -2048 -1024 -2048 -1104
WIRE -2048 -1024 -2432 -1024
WIRE -944 -1024 -1344 -1024
WIRE -1264 -1008 -1360 -1008
WIRE -2080 -992 -2080 -1120
WIRE -2080 -992 -2432 -992
WIRE -2112 -960 -2112 -1136
WIRE -2112 -960 -2432 -960
WIRE -1328 -944 -1328 -1040
WIRE -1328 -944 -1824 -944
WIRE -2144 -928 -2144 -1152
WIRE -2144 -928 -2432 -928
WIRE -1344 -912 -1344 -1024
WIRE -1344 -912 -1824 -912
WIRE -1264 -912 -1296 -912
WIRE -2176 -896 -2176 -1168
WIRE -2176 -896 -2432 -896
WIRE -944 -896 -1312 -896
WIRE -1360 -880 -1360 -1008
WIRE -1360 -880 -1824 -880
WIRE -1264 -880 -1328 -880
WIRE -2208 -864 -2208 -1184
WIRE -2208 -864 -2432 -864
WIRE -944 -864 -1344 -864
WIRE -1264 -848 -1360 -848
WIRE -2240 -832 -2240 -1200
WIRE -2240 -832 -2432 -832
WIRE -944 -832 -1376 -832
WIRE -2272 -800 -2272 -1216
WIRE -2272 -800 -2432 -800
WIRE -1376 -784 -1376 -832
WIRE -1376 -784 -1968 -784
WIRE -2304 -768 -2304 -1232
WIRE -2304 -768 -2432 -768
WIRE -1360 -752 -1360 -848
WIRE -1360 -752 -1968 -752
WIRE -2336 -736 -2336 -1248
WIRE -2336 -736 -2432 -736
WIRE -1344 -720 -1344 -864
WIRE -1344 -720 -1968 -720
WIRE -2368 -704 -2368 -1264
WIRE -2368 -704 -2432 -704
WIRE -1328 -688 -1328 -880
WIRE -1328 -688 -1968 -688
WIRE -1312 -656 -1312 -896
WIRE -1312 -656 -1968 -656
WIRE -1296 -624 -1296 -912
WIRE -1296 -624 -1968 -624
FLAG -2480 -1104 0
FLAG -2432 -1056 CPU_A11
IOPIN -2432 -1056 In
FLAG -2432 -1024 CPU_A10
IOPIN -2432 -1024 In
FLAG -2432 -992 CPU_A09
IOPIN -2432 -992 In
FLAG -2432 -960 CPU_A08
IOPIN -2432 -960 In
FLAG -2432 -928 CPU_A07
IOPIN -2432 -928 In
FLAG -2432 -896 CPU_A06
IOPIN -2432 -896 In
FLAG -2432 -864 CPU_A05
IOPIN -2432 -864 In
FLAG -2432 -832 CPU_A04
IOPIN -2432 -832 In
FLAG -2432 -800 CPU_A03
IOPIN -2432 -800 In
FLAG -2432 -768 CPU_A02
IOPIN -2432 -768 In
FLAG -2432 -736 CPU_A01
IOPIN -2432 -736 In
FLAG -2432 -704 CPU_A00
IOPIN -2432 -704 In
FLAG -2432 -672 CPU_RW
IOPIN -2432 -672 In
FLAG -2496 -640 /IRQ
IOPIN -2496 -640 Out
FLAG -2480 -608 0
FLAG -2576 -496 CIRAM_A10
IOPIN -2576 -496 Out
FLAG -2448 -560 /PPU_RD
IOPIN -2448 -560 In
FLAG -2448 -528 CPU_RW
IOPIN -2448 -528 In
FLAG -2448 -464 PPU_A06
IOPIN -2448 -464 In
FLAG -2448 -432 PPU_A05
IOPIN -2448 -432 In
FLAG -2448 -400 PPU_A04
IOPIN -2448 -400 In
FLAG -2448 -368 PPU_A03
IOPIN -2448 -368 In
FLAG -2448 -336 PPU_A02
IOPIN -2448 -336 In
FLAG -2448 -304 PPU_A01
IOPIN -2448 -304 In
FLAG -2448 -272 PPU_A00
IOPIN -2448 -272 In
FLAG -2576 -240 PPU_D00
IOPIN -2576 -240 BiDir
FLAG -2576 -208 PPU_D01
IOPIN -2576 -208 BiDir
FLAG -2576 -176 PPU_D02
IOPIN -2576 -176 BiDir
FLAG -2576 -144 PPU_D03
IOPIN -2576 -144 BiDir
FLAG -1968 -848 CPU_D07
IOPIN -1968 -848 BiDir
FLAG -1824 -944 CPU_A12
IOPIN -1824 -944 In
FLAG -1824 -912 CPU_A13
IOPIN -1824 -912 In
FLAG -1824 -880 CPU_A14
IOPIN -1824 -880 In
FLAG -1968 -816 CPU_D06
IOPIN -1968 -816 BiDir
FLAG -1968 -784 CPU_D05
IOPIN -1968 -784 BiDir
FLAG -1968 -752 CPU_D04
IOPIN -1968 -752 BiDir
FLAG -1968 -720 CPU_D03
IOPIN -1968 -720 BiDir
FLAG -1968 -688 CPU_D02
IOPIN -1968 -688 BiDir
FLAG -1968 -656 CPU_D01
IOPIN -1968 -656 BiDir
FLAG -1968 -624 CPU_D00
IOPIN -1968 -624 BiDir
FLAG -1840 -592 /ROMSEL
IOPIN -1840 -592 In
FLAG -1840 -560 Audio_IN
IOPIN -1840 -560 In
FLAG -1952 -528 Audio_OUT
IOPIN -1952 -528 Out
FLAG -1840 -496 /PPU_WR
IOPIN -1840 -496 In
FLAG -1952 -464 /CIRAM_CE
IOPIN -1952 -464 Out
FLAG -1824 -432 /PPU_A13
IOPIN -1824 -432 In
FLAG -1824 -400 PPU_A07
IOPIN -1824 -400 In
FLAG -1824 -368 PPU_A08
IOPIN -1824 -368 In
FLAG -1824 -336 PPU_A09
IOPIN -1824 -336 In
FLAG -1824 -304 PPU_A10
IOPIN -1824 -304 In
FLAG -1824 -272 PPU_A11
IOPIN -1824 -272 In
FLAG -1824 -240 PPU_A12
IOPIN -1824 -240 In
FLAG -1824 -208 PPU_A13
IOPIN -1824 -208 In
FLAG -1952 -176 PPU_D07
IOPIN -1952 -176 BiDir
FLAG -1952 -144 PPU_D06
IOPIN -1952 -144 BiDir
FLAG -1952 -112 PPU_D05
IOPIN -1952 -112 BiDir
FLAG -1952 -80 PPU_D04
IOPIN -1952 -80 BiDir
FLAG -1264 -1264 GPIO_0_D00
IOPIN -1264 -1264 BiDir
FLAG -1264 -1232 GPIO_0_D02
IOPIN -1264 -1232 BiDir
FLAG -1264 -1200 GPIO_0_D04
IOPIN -1264 -1200 BiDir
FLAG -1264 -1168 GPIO_0_D06
IOPIN -1264 -1168 BiDir
FLAG -1264 -1136 GPIO_0_D08
IOPIN -1264 -1136 BiDir
FLAG -1264 -1072 GPIO_0_D10
IOPIN -1264 -1072 BiDir
FLAG -1264 -1040 GPIO_0_D12
IOPIN -1264 -1040 BiDir
FLAG -1264 -1008 GPIO_0_D14
IOPIN -1264 -1008 BiDir
FLAG -1264 -976 GPIO_0_D16
IOPIN -1264 -976 BiDir
FLAG -1264 -944 GPIO_0_D18
IOPIN -1264 -944 BiDir
FLAG -1264 -912 GPIO_0_D20
IOPIN -1264 -912 BiDir
FLAG -1264 -880 GPIO_0_D22
IOPIN -1264 -880 BiDir
FLAG -1264 -848 GPIO_0_D24
IOPIN -1264 -848 BiDir
FLAG -1264 -784 GPIO_0_D26
IOPIN -1264 -784 BiDir
FLAG -1264 -752 GPIO_0_D28
IOPIN -1264 -752 BiDir
FLAG -1264 -720 GPIO_0_D30
IOPIN -1264 -720 BiDir
FLAG -1264 -688 GPIO_0_D32
IOPIN -1264 -688 BiDir
FLAG -1264 -656 GPIO_0_D34
IOPIN -1264 -656 BiDir
FLAG -944 -1248 GPIO_0_D01
IOPIN -944 -1248 BiDir
FLAG -944 -1216 GPIO_0_D03
IOPIN -944 -1216 BiDir
FLAG -944 -1184 GPIO_0_D05
IOPIN -944 -1184 BiDir
FLAG -944 -1152 GPIO_0_D07
IOPIN -944 -1152 BiDir
FLAG -944 -1120 GPIO_0_D09
IOPIN -944 -1120 BiDir
FLAG -944 -1056 GPIO_0_D11
IOPIN -944 -1056 BiDir
FLAG -944 -1024 GPIO_0_D13
IOPIN -944 -1024 BiDir
FLAG -944 -992 GPIO_0_D15
IOPIN -944 -992 BiDir
FLAG -944 -960 GPIO_0_D17
IOPIN -944 -960 BiDir
FLAG -944 -928 GPIO_0_D19
IOPIN -944 -928 BiDir
FLAG -944 -896 GPIO_0_D21
IOPIN -944 -896 BiDir
FLAG -944 -864 GPIO_0_D23
IOPIN -944 -864 BiDir
FLAG -944 -832 GPIO_0_D25
IOPIN -944 -832 BiDir
FLAG -944 -768 GPIO_0_D27
IOPIN -944 -768 BiDir
FLAG -944 -736 GPIO_0_D29
IOPIN -944 -736 BiDir
FLAG -944 -704 GPIO_0_D31
IOPIN -944 -704 BiDir
FLAG -944 -672 GPIO_0_D33
IOPIN -944 -672 BiDir
FLAG -944 -640 GPIO_0_D35
IOPIN -944 -640 BiDir
FLAG -1264 -352 GPIO_1_D00
IOPIN -1264 -352 BiDir
FLAG -1264 -320 GPIO_1_D02
IOPIN -1264 -320 BiDir
FLAG -1264 -288 GPIO_1_D04
IOPIN -1264 -288 BiDir
FLAG -1264 -256 GPIO_1_D06
IOPIN -1264 -256 BiDir
FLAG -1264 -224 GPIO_1_D08
IOPIN -1264 -224 BiDir
FLAG -1264 -160 GPIO_1_D10
IOPIN -1264 -160 BiDir
FLAG -1264 -128 GPIO_1_D12
IOPIN -1264 -128 BiDir
FLAG -1264 -96 GPIO_1_D14
IOPIN -1264 -96 BiDir
FLAG -1264 -64 GPIO_1_D16
IOPIN -1264 -64 BiDir
FLAG -1264 -32 GPIO_1_D18
IOPIN -1264 -32 BiDir
FLAG -1264 0 GPIO_1_D20
IOPIN -1264 0 BiDir
FLAG -1264 32 GPIO_1_D22
IOPIN -1264 32 BiDir
FLAG -1264 64 GPIO_1_D24
IOPIN -1264 64 BiDir
FLAG -1264 128 GPIO_1_D26
IOPIN -1264 128 BiDir
FLAG -1264 160 GPIO_1_D28
IOPIN -1264 160 BiDir
FLAG -1264 192 GPIO_1_D30
IOPIN -1264 192 BiDir
FLAG -1264 224 GPIO_1_D32
IOPIN -1264 224 BiDir
FLAG -1264 256 GPIO_1_D34
IOPIN -1264 256 BiDir
FLAG -944 -352 GPIO_1_D01
IOPIN -944 -352 BiDir
FLAG -944 -320 GPIO_1_D03
IOPIN -944 -320 BiDir
FLAG -944 -288 GPIO_1_D05
IOPIN -944 -288 BiDir
FLAG -944 -256 GPIO_1_D07
IOPIN -944 -256 BiDir
FLAG -944 -224 GPIO_1_D09
IOPIN -944 -224 BiDir
FLAG -944 -160 GPIO_1_D11
IOPIN -944 -160 BiDir
FLAG -944 -128 GPIO_1_D13
IOPIN -944 -128 BiDir
FLAG -944 -96 GPIO_1_D15
IOPIN -944 -96 BiDir
FLAG -944 -64 GPIO_1_D17
IOPIN -944 -64 BiDir
FLAG -944 -32 GPIO_1_D19
IOPIN -944 -32 BiDir
FLAG -944 0 GPIO_1_D21
IOPIN -944 0 BiDir
FLAG -944 32 GPIO_1_D23
IOPIN -944 32 BiDir
FLAG -944 64 GPIO_1_D25
IOPIN -944 64 BiDir
FLAG -944 128 GPIO_1_D27
IOPIN -944 128 BiDir
FLAG -944 160 GPIO_1_D29
IOPIN -944 160 BiDir
FLAG -944 192 GPIO_1_D31
IOPIN -944 192 BiDir
FLAG -944 224 GPIO_1_D33
IOPIN -944 224 BiDir
FLAG -944 256 GPIO_1_D35
IOPIN -944 256 BiDir
SYMBOL voltage -2544 -112 R0
WINDOW 123 0 0 Left 2
WINDOW 39 0 0 Left 2
SYMATTR InstName V1
SYMATTR Value 5
SYMBOL voltage -1904 -1088 R0
WINDOW 123 0 0 Left 2
WINDOW 39 0 0 Left 2
SYMATTR InstName V2
SYMATTR Value 5
