Version 4
SHEET 1 880 680
WIRE 80 80 -32 80
WIRE -32 112 -32 80
WIRE 80 144 80 80
WIRE 192 144 192 96
WIRE 192 144 80 144
FLAG -32 48 0
FLAG 144 48 0
